data_image0
_cell_length_a       2.18144
_cell_length_b       3.24197
_cell_length_c       23.3446
_cell_angle_alpha    90
_cell_angle_beta     90
_cell_angle_gamma    89.8802

_symmetry_space_group_name_H-M    "P 1"
_symmetry_int_tables_number       1

loop_
  _symmetry_equiv_pos_as_xyz
  'x, y, z'

loop_
  _atom_site_label
  _atom_site_occupancy
  _atom_site_fract_x
  _atom_site_fract_y
  _atom_site_fract_z
  _atom_site_thermal_displace_type
  _atom_site_B_iso_or_equiv
  _atom_site_type_symbol
  N1       1.0000 0.75087  0.99252  0.56436  Biso   1.000  N
  N2       1.0000 0.24955  0.20869  0.56471  Biso   1.000  N
  N3       1.0000 0.75046  0.79132  0.43529  Biso   1.000  N
  N4       1.0000 0.24912  0.00747  0.43563  Biso   1.000  N
