data_image0
_cell_length_a       4.42167
_cell_length_b       4.54224
_cell_length_c       23.3446
_cell_angle_alpha    90
_cell_angle_beta     90
_cell_angle_gamma    90

_symmetry_space_group_name_H-M    "P 1"
_symmetry_int_tables_number       1

loop_
  _symmetry_equiv_pos_as_xyz
  'x, y, z'

loop_
  _atom_site_label
  _atom_site_occupancy
  _atom_site_fract_x
  _atom_site_fract_y
  _atom_site_fract_z
  _atom_site_thermal_displace_type
  _atom_site_B_iso_or_equiv
  _atom_site_type_symbol
  Sb1      1.0000 0.75000  0.78685  0.54931  Biso   1.000  Sb
  Sb2      1.0000 0.25000  0.35844  0.57178  Biso   1.000  Sb
  Sb3      1.0000 0.75000  0.64156  0.42822  Biso   1.000  Sb
  Sb4      1.0000 0.25000  0.21315  0.45069  Biso   1.000  Sb
